new transformer.TF1 phases=3 windings=2 buses=(sourcebus, 1) conns=(wye, wye) kvs=(132, 23) kvas=(200000, 200000) %loadloss=1.2 xhl=12.5 
