Set DefaultBaseFrequency=50
 clear
 Set datapath="C:\Users\dany_\Desktop\New tesis\Simulaciones Tesis\Red 33 v4\Datos DSS" 
New circuit.redprueba basekV=132 pu=1.0 angle=0 frequency=50 phases=3
 